Feeders/R1-12.47-2.glm
clock {
     timezone EST+5EDT;
     timestamp '2000-01-01 0:00:00';
     stoptime '2000-01-01 0:01:00';
}
#set profiler=1
module tape;
module powerflow{
  solver_method NR;
  default_maximum_voltage_error 1e-6;
};
object transformer_configuration {
  name XF1_POLETOP_AS_15;
  power_rating 15.00;
  powerA_rating 15.00;
  powerB_rating 0.0;
  powerC_rating 0.0;
  install_type POLETOP;
  connect_type SINGLE_PHASE_CENTER_TAPPED;
  primary_voltage 7200.0;
  secondary_voltage 120.0;
  resistance 0.00850;
  resistance1 0.01700;
  resistance2 0.01700;
  reactance 0.01176;
  reactance1 0.00588;
  reactance2 0.00588;
  shunt_resistance 166.67;
  shunt_reactance 39.53;
}
object transformer_configuration {
  name XF1_PADMOUNT_AS_37p5;
  power_rating 37.50;
  powerA_rating 37.50;
  powerB_rating 0.0;
  powerC_rating 0.0;
  install_type PADMOUNT;
  connect_type SINGLE_PHASE_CENTER_TAPPED;
  primary_voltage 7200.0;
  secondary_voltage 120.0;
  resistance 0.00725;
  resistance1 0.01450;
  resistance2 0.01450;
  reactance 0.01320;
  reactance1 0.00660;
  reactance2 0.00660;
  shunt_resistance 212.77;
  shunt_reactance 57.47;
}
object transformer_configuration {
  name XF1_POLETOP_AS_25;
  power_rating 25.00;
  powerA_rating 25.00;
  powerB_rating 0.0;
  powerC_rating 0.0;
  install_type POLETOP;
  connect_type SINGLE_PHASE_CENTER_TAPPED;
  primary_voltage 7200.0;
  secondary_voltage 120.0;
  resistance 0.00800;
  resistance1 0.01600;
  resistance2 0.01600;
  reactance 0.01208;
  reactance1 0.00604;
  reactance2 0.00604;
  shunt_resistance 192.31;
  shunt_reactance 51.81;
}
object transformer_configuration {
  name XF1_POLETOP_AS_10;
  power_rating 10.00;
  powerA_rating 10.00;
  powerB_rating 0.0;
  powerC_rating 0.0;
  install_type POLETOP;
  connect_type SINGLE_PHASE_CENTER_TAPPED;
  primary_voltage 7200.0;
  secondary_voltage 120.0;
  resistance 0.00950;
  resistance1 0.01900;
  resistance2 0.01900;
  reactance 0.01040;
  reactance1 0.00520;
  reactance2 0.00520;
  shunt_resistance 147.06;
  shunt_reactance 34.25;
}
object transformer_configuration {
  name XF1_POLETOP_AS_75;
  power_rating 75.00;
  powerA_rating 75.00;
  powerB_rating 0.0;
  powerC_rating 0.0;
  install_type POLETOP;
  connect_type SINGLE_PHASE_CENTER_TAPPED;
  primary_voltage 7200.0;
  secondary_voltage 120.0;
  resistance 0.00625;
  resistance1 0.01250;
  resistance2 0.01250;
  reactance 0.01352;
  reactance1 0.00676;
  reactance2 0.00676;
  shunt_resistance 238.10;
  shunt_reactance 67.11;
}
object transformer_configuration {
  name XF1_PADMOUNT_AS_5;
  power_rating 5.00;
  powerA_rating 5.00;
  powerB_rating 0.0;
  powerC_rating 0.0;
  install_type PADMOUNT;
  connect_type SINGLE_PHASE_CENTER_TAPPED;
  primary_voltage 7200.0;
  secondary_voltage 120.0;
  resistance 0.01050;
  resistance1 0.02100;
  resistance2 0.02100;
  reactance 0.01224;
  reactance1 0.00612;
  reactance2 0.00612;
  shunt_resistance 111.11;
  shunt_reactance 29.59;
}
object transformer_configuration {
  name XF1_PADMOUNT_BS_10;
  power_rating 10.00;
  powerA_rating 0.0;
  powerB_rating 10.00;
  powerC_rating 0.0;
  install_type PADMOUNT;
  connect_type SINGLE_PHASE_CENTER_TAPPED;
  primary_voltage 7200.0;
  secondary_voltage 120.0;
  resistance 0.00950;
  resistance1 0.01900;
  resistance2 0.01900;
  reactance 0.01040;
  reactance1 0.00520;
  reactance2 0.00520;
  shunt_resistance 147.06;
  shunt_reactance 34.25;
}
object transformer_configuration {
  name XF1_PADMOUNT_CS_5;
  power_rating 5.00;
  powerA_rating 0.0;
  powerB_rating 0.0;
  powerC_rating 5.00;
  install_type PADMOUNT;
  connect_type SINGLE_PHASE_CENTER_TAPPED;
  primary_voltage 7200.0;
  secondary_voltage 120.0;
  resistance 0.01050;
  resistance1 0.02100;
  resistance2 0.02100;
  reactance 0.01224;
  reactance1 0.00612;
  reactance2 0.00612;
  shunt_resistance 111.11;
  shunt_reactance 29.59;
}
object transformer_configuration {
  name XF1_POLETOP_BS_5;
  power_rating 5.00;
  powerA_rating 0.0;
  powerB_rating 5.00;
  powerC_rating 0.0;
  install_type POLETOP;
  connect_type SINGLE_PHASE_CENTER_TAPPED;
  primary_voltage 7200.0;
  secondary_voltage 120.0;
  resistance 0.01050;
  resistance1 0.02100;
  resistance2 0.02100;
  reactance 0.01224;
  reactance1 0.00612;
  reactance2 0.00612;
  shunt_resistance 111.11;
  shunt_reactance 29.59;
}
object transformer_configuration {
  name XF1_POLETOP_CS_5;
  power_rating 5.00;
  powerA_rating 0.0;
  powerB_rating 0.0;
  powerC_rating 5.00;
  install_type POLETOP;
  connect_type SINGLE_PHASE_CENTER_TAPPED;
  primary_voltage 7200.0;
  secondary_voltage 120.0;
  resistance 0.01050;
  resistance1 0.02100;
  resistance2 0.02100;
  reactance 0.01224;
  reactance1 0.00612;
  reactance2 0.00612;
  shunt_resistance 111.11;
  shunt_reactance 29.59;
}
object transformer_configuration {
  name XF1_POLETOP_CS_25;
  power_rating 25.00;
  powerA_rating 0.0;
  powerB_rating 0.0;
  powerC_rating 25.00;
  install_type POLETOP;
  connect_type SINGLE_PHASE_CENTER_TAPPED;
  primary_voltage 7200.0;
  secondary_voltage 120.0;
  resistance 0.00800;
  resistance1 0.01600;
  resistance2 0.01600;
  reactance 0.01208;
  reactance1 0.00604;
  reactance2 0.00604;
  shunt_resistance 192.31;
  shunt_reactance 51.81;
}
object transformer_configuration {
  name XF1_POLETOP_AS_5;
  power_rating 5.00;
  powerA_rating 5.00;
  powerB_rating 0.0;
  powerC_rating 0.0;
  install_type POLETOP;
  connect_type SINGLE_PHASE_CENTER_TAPPED;
  primary_voltage 7200.0;
  secondary_voltage 120.0;
  resistance 0.01050;
  resistance1 0.02100;
  resistance2 0.02100;
  reactance 0.01224;
  reactance1 0.00612;
  reactance2 0.00612;
  shunt_resistance 111.11;
  shunt_reactance 29.59;
}
object transformer_configuration {
  name XF1_POLETOP_BS_15;
  power_rating 15.00;
  powerA_rating 0.0;
  powerB_rating 15.00;
  powerC_rating 0.0;
  install_type POLETOP;
  connect_type SINGLE_PHASE_CENTER_TAPPED;
  primary_voltage 7200.0;
  secondary_voltage 120.0;
  resistance 0.00850;
  resistance1 0.01700;
  resistance2 0.01700;
  reactance 0.01176;
  reactance1 0.00588;
  reactance2 0.00588;
  shunt_resistance 166.67;
  shunt_reactance 39.53;
}
object transformer_configuration {
  name XF1_POLETOP_CS_10;
  power_rating 10.00;
  powerA_rating 0.0;
  powerB_rating 0.0;
  powerC_rating 10.00;
  install_type POLETOP;
  connect_type SINGLE_PHASE_CENTER_TAPPED;
  primary_voltage 7200.0;
  secondary_voltage 120.0;
  resistance 0.00950;
  resistance1 0.01900;
  resistance2 0.01900;
  reactance 0.01040;
  reactance1 0.00520;
  reactance2 0.00520;
  shunt_resistance 147.06;
  shunt_reactance 34.25;
}
object transformer_configuration {
  name XF1_POLETOP_BS_10;
  power_rating 10.00;
  powerA_rating 0.0;
  powerB_rating 10.00;
  powerC_rating 0.0;
  install_type POLETOP;
  connect_type SINGLE_PHASE_CENTER_TAPPED;
  primary_voltage 7200.0;
  secondary_voltage 120.0;
  resistance 0.00950;
  resistance1 0.01900;
  resistance2 0.01900;
  reactance 0.01040;
  reactance1 0.00520;
  reactance2 0.00520;
  shunt_resistance 147.06;
  shunt_reactance 34.25;
}
object transformer_configuration {
  name XF1_POLETOP_CS_37p5;
  power_rating 37.50;
  powerA_rating 0.0;
  powerB_rating 0.0;
  powerC_rating 37.50;
  install_type POLETOP;
  connect_type SINGLE_PHASE_CENTER_TAPPED;
  primary_voltage 7200.0;
  secondary_voltage 120.0;
  resistance 0.00725;
  resistance1 0.01450;
  resistance2 0.01450;
  reactance 0.01320;
  reactance1 0.00660;
  reactance2 0.00660;
  shunt_resistance 212.77;
  shunt_reactance 57.47;
}
object transformer_configuration {
  name XF1_PADMOUNT_CS_25;
  power_rating 25.00;
  powerA_rating 0.0;
  powerB_rating 0.0;
  powerC_rating 25.00;
  install_type PADMOUNT;
  connect_type SINGLE_PHASE_CENTER_TAPPED;
  primary_voltage 7200.0;
  secondary_voltage 120.0;
  resistance 0.00800;
  resistance1 0.01600;
  resistance2 0.01600;
  reactance 0.01208;
  reactance1 0.00604;
  reactance2 0.00604;
  shunt_resistance 192.31;
  shunt_reactance 51.81;
}
object transformer_configuration {
  name XF1_PADMOUNT_CS_10;
  power_rating 10.00;
  powerA_rating 0.0;
  powerB_rating 0.0;
  powerC_rating 10.00;
  install_type PADMOUNT;
  connect_type SINGLE_PHASE_CENTER_TAPPED;
  primary_voltage 7200.0;
  secondary_voltage 120.0;
  resistance 0.00950;
  resistance1 0.01900;
  resistance2 0.01900;
  reactance 0.01040;
  reactance1 0.00520;
  reactance2 0.00520;
  shunt_resistance 147.06;
  shunt_reactance 34.25;
}
object transformer_configuration {
  name XF1_PADMOUNT_BS_5;
  power_rating 5.00;
  powerA_rating 0.0;
  powerB_rating 5.00;
  powerC_rating 0.0;
  install_type PADMOUNT;
  connect_type SINGLE_PHASE_CENTER_TAPPED;
  primary_voltage 7200.0;
  secondary_voltage 120.0;
  resistance 0.01050;
  resistance1 0.02100;
  resistance2 0.02100;
  reactance 0.01224;
  reactance1 0.00612;
  reactance2 0.00612;
  shunt_resistance 111.11;
  shunt_reactance 29.59;
}
object transformer_configuration {
  name XF1_POLETOP_BS_25;
  power_rating 25.00;
  powerA_rating 0.0;
  powerB_rating 25.00;
  powerC_rating 0.0;
  install_type POLETOP;
  connect_type SINGLE_PHASE_CENTER_TAPPED;
  primary_voltage 7200.0;
  secondary_voltage 120.0;
  resistance 0.00800;
  resistance1 0.01600;
  resistance2 0.01600;
  reactance 0.01208;
  reactance1 0.00604;
  reactance2 0.00604;
  shunt_resistance 192.31;
  shunt_reactance 51.81;
}
object transformer_configuration {
  name XF1_PADMOUNT_BS_15;
  power_rating 15.00;
  powerA_rating 0.0;
  powerB_rating 15.00;
  powerC_rating 0.0;
  install_type PADMOUNT;
  connect_type SINGLE_PHASE_CENTER_TAPPED;
  primary_voltage 7200.0;
  secondary_voltage 120.0;
  resistance 0.00850;
  resistance1 0.01700;
  resistance2 0.01700;
  reactance 0.01176;
  reactance1 0.00588;
  reactance2 0.00588;
  shunt_resistance 166.67;
  shunt_reactance 39.53;
}
object transformer_configuration {
  name XF1_PADMOUNT_AS_10;
  power_rating 10.00;
  powerA_rating 10.00;
  powerB_rating 0.0;
  powerC_rating 0.0;
  install_type PADMOUNT;
  connect_type SINGLE_PHASE_CENTER_TAPPED;
  primary_voltage 7200.0;
  secondary_voltage 120.0;
  resistance 0.00950;
  resistance1 0.01900;
  resistance2 0.01900;
  reactance 0.01040;
  reactance1 0.00520;
  reactance2 0.00520;
  shunt_resistance 147.06;
  shunt_reactance 34.25;
}
object transformer_configuration {
  name XF1_PADMOUNT_AS_15;
  power_rating 15.00;
  powerA_rating 15.00;
  powerB_rating 0.0;
  powerC_rating 0.0;
  install_type PADMOUNT;
  connect_type SINGLE_PHASE_CENTER_TAPPED;
  primary_voltage 7200.0;
  secondary_voltage 120.0;
  resistance 0.00850;
  resistance1 0.01700;
  resistance2 0.01700;
  reactance 0.01176;
  reactance1 0.00588;
  reactance2 0.00588;
  shunt_resistance 166.67;
  shunt_reactance 39.53;
}
object transformer_configuration {
  name XF1_PADMOUNT_BS_37p5;
  power_rating 37.50;
  powerA_rating 0.0;
  powerB_rating 37.50;
  powerC_rating 0.0;
  install_type PADMOUNT;
  connect_type SINGLE_PHASE_CENTER_TAPPED;
  primary_voltage 7200.0;
  secondary_voltage 120.0;
  resistance 0.00725;
  resistance1 0.01450;
  resistance2 0.01450;
  reactance 0.01320;
  reactance1 0.00660;
  reactance2 0.00660;
  shunt_resistance 212.77;
  shunt_reactance 57.47;
}
object transformer_configuration {
  name XF1_POLETOP_AS_50;
  power_rating 50.00;
  powerA_rating 50.00;
  powerB_rating 0.0;
  powerC_rating 0.0;
  install_type POLETOP;
  connect_type SINGLE_PHASE_CENTER_TAPPED;
  primary_voltage 7200.0;
  secondary_voltage 120.0;
  resistance 0.00650;
  resistance1 0.01300;
  resistance2 0.01300;
  reactance 0.01416;
  reactance1 0.00708;
  reactance2 0.00708;
  shunt_resistance 222.22;
  shunt_reactance 64.94;
}
object transformer_configuration {
  name XF1_POLETOP_AS_37p5;
  power_rating 37.50;
  powerA_rating 37.50;
  powerB_rating 0.0;
  powerC_rating 0.0;
  install_type POLETOP;
  connect_type SINGLE_PHASE_CENTER_TAPPED;
  primary_voltage 7200.0;
  secondary_voltage 120.0;
  resistance 0.00725;
  resistance1 0.01450;
  resistance2 0.01450;
  reactance 0.01320;
  reactance1 0.00660;
  reactance2 0.00660;
  shunt_resistance 212.77;
  shunt_reactance 57.47;
}
object transformer_configuration {
  name XF1_PADMOUNT_AS_25;
  power_rating 25.00;
  powerA_rating 25.00;
  powerB_rating 0.0;
  powerC_rating 0.0;
  install_type PADMOUNT;
  connect_type SINGLE_PHASE_CENTER_TAPPED;
  primary_voltage 7200.0;
  secondary_voltage 120.0;
  resistance 0.00800;
  resistance1 0.01600;
  resistance2 0.01600;
  reactance 0.01208;
  reactance1 0.00604;
  reactance2 0.00604;
  shunt_resistance 192.31;
  shunt_reactance 51.81;
}
object transformer_configuration {
  name XF1_PADMOUNT_CS_37p5;
  power_rating 37.50;
  powerA_rating 0.0;
  powerB_rating 0.0;
  powerC_rating 37.50;
  install_type PADMOUNT;
  connect_type SINGLE_PHASE_CENTER_TAPPED;
  primary_voltage 7200.0;
  secondary_voltage 120.0;
  resistance 0.00725;
  resistance1 0.01450;
  resistance2 0.01450;
  reactance 0.01320;
  reactance1 0.00660;
  reactance2 0.00660;
  shunt_resistance 212.77;
  shunt_reactance 57.47;
}
object transformer_configuration {
  name XF1_PADMOUNT_CS_50;
  power_rating 50.00;
  powerA_rating 0.0;
  powerB_rating 0.0;
  powerC_rating 50.00;
  install_type PADMOUNT;
  connect_type SINGLE_PHASE_CENTER_TAPPED;
  primary_voltage 7200.0;
  secondary_voltage 120.0;
  resistance 0.00650;
  resistance1 0.01300;
  resistance2 0.01300;
  reactance 0.01416;
  reactance1 0.00708;
  reactance2 0.00708;
  shunt_resistance 222.22;
  shunt_reactance 64.94;
}
object transformer_configuration {
  name XF1_PADMOUNT_BS_75;
  power_rating 75.00;
  powerA_rating 0.0;
  powerB_rating 75.00;
  powerC_rating 0.0;
  install_type PADMOUNT;
  connect_type SINGLE_PHASE_CENTER_TAPPED;
  primary_voltage 7200.0;
  secondary_voltage 120.0;
  resistance 0.00625;
  resistance1 0.01250;
  resistance2 0.01250;
  reactance 0.01352;
  reactance1 0.00676;
  reactance2 0.00676;
  shunt_resistance 238.10;
  shunt_reactance 67.11;
}
object transformer_configuration {
  name XF1_PADMOUNT_CS_15;
  power_rating 15.00;
  powerA_rating 0.0;
  powerB_rating 0.0;
  powerC_rating 15.00;
  install_type PADMOUNT;
  connect_type SINGLE_PHASE_CENTER_TAPPED;
  primary_voltage 7200.0;
  secondary_voltage 120.0;
  resistance 0.00850;
  resistance1 0.01700;
  resistance2 0.01700;
  reactance 0.01176;
  reactance1 0.00588;
  reactance2 0.00588;
  shunt_resistance 166.67;
  shunt_reactance 39.53;
}
object transformer_configuration {
  name XF3_PADMOUNT_ABCN_30;
  power_rating 30.00;
  powerA_rating 10.00;
  powerB_rating 10.00;
  powerC_rating 10.00;
  install_type PADMOUNT;
  connect_type WYE_WYE;
  primary_voltage 12470.0;
  secondary_voltage 208.0;
  resistance 0.01900;
  reactance 0.01770;
  shunt_resistance 126.58;
  shunt_reactance 22.57;
}
object transformer_configuration {
  name XF3_PADMOUNT_ABCN_300;
  power_rating 300.00;
  powerA_rating 100.00;
  powerB_rating 100.00;
  powerC_rating 100.00;
  install_type PADMOUNT;
  connect_type WYE_WYE;
  primary_voltage 12470.0;
  secondary_voltage 480.0;
  resistance 0.01300;
  reactance 0.04830;
  shunt_resistance 217.39;
  shunt_reactance 44.44;
}
object transformer_configuration {
  name XF3_POLETOP_ABCN_75;
  power_rating 75.00;
  powerA_rating 25.00;
  powerB_rating 25.00;
  powerC_rating 25.00;
  install_type POLETOP;
  connect_type WYE_WYE;
  primary_voltage 12470.0;
  secondary_voltage 208.0;
  resistance 0.01600;
  reactance 0.02420;
  shunt_resistance 158.73;
  shunt_reactance 30.86;
}
object transformer_configuration {
  name XF1_POLETOP_AN_25;
  power_rating 25.00;
  powerA_rating 25.00;
  powerB_rating 0.0;
  powerC_rating 0.0;
  install_type POLETOP;
  connect_type WYE_WYE;
  primary_voltage 12470.0;
  secondary_voltage 208.0;
  resistance 0.01900;
  reactance 0.01770;
  shunt_resistance 126.58;
  shunt_reactance 22.57;
}
object transformer_configuration {
  name XF1_POLETOP_AN_50;
  power_rating 50.00;
  powerA_rating 50.00;
  powerB_rating 0.0;
  powerC_rating 0.0;
  install_type POLETOP;
  connect_type WYE_WYE;
  primary_voltage 12470.0;
  secondary_voltage 208.0;
  resistance 0.01600;
  reactance 0.02420;
  shunt_resistance 158.73;
  shunt_reactance 30.86;
}
object transformer_configuration {
  name XF1_PADMOUNT_AN_15;
  power_rating 15.00;
  powerA_rating 15.00;
  powerB_rating 0.0;
  powerC_rating 0.0;
  install_type PADMOUNT;
  connect_type WYE_WYE;
  primary_voltage 12470.0;
  secondary_voltage 208.0;
  resistance 0.01900;
  reactance 0.01770;
  shunt_resistance 126.58;
  shunt_reactance 22.57;
}
object transformer_configuration {
  name XF1_POLETOP_BN_5;
  power_rating 5.00;
  powerA_rating 0.0;
  powerB_rating 5.00;
  powerC_rating 0.0;
  install_type POLETOP;
  connect_type WYE_WYE;
  primary_voltage 12470.0;
  secondary_voltage 208.0;
  resistance 0.01900;
  reactance 0.01770;
  shunt_resistance 126.58;
  shunt_reactance 22.57;
}
object transformer_configuration {
  name XF1_POLETOP_BN_15;
  power_rating 15.00;
  powerA_rating 0.0;
  powerB_rating 15.00;
  powerC_rating 0.0;
  install_type POLETOP;
  connect_type WYE_WYE;
  primary_voltage 12470.0;
  secondary_voltage 208.0;
  resistance 0.01900;
  reactance 0.01770;
  shunt_resistance 126.58;
  shunt_reactance 22.57;
}
object transformer_configuration {
  name XF3_POLETOP_ABCN_30;
  power_rating 30.00;
  powerA_rating 10.00;
  powerB_rating 10.00;
  powerC_rating 10.00;
  install_type POLETOP;
  connect_type WYE_WYE;
  primary_voltage 12470.0;
  secondary_voltage 208.0;
  resistance 0.01900;
  reactance 0.01770;
  shunt_resistance 126.58;
  shunt_reactance 22.57;
}
object transformer_configuration {
  name XF1_POLETOP_AN_10;
  power_rating 10.00;
  powerA_rating 10.00;
  powerB_rating 0.0;
  powerC_rating 0.0;
  install_type POLETOP;
  connect_type WYE_WYE;
  primary_voltage 12470.0;
  secondary_voltage 208.0;
  resistance 0.01900;
  reactance 0.01770;
  shunt_resistance 126.58;
  shunt_reactance 22.57;
}
object regulator_configuration {
  name feeder_reg_cfg;
  connect_type WYE_WYE;
  Control OUTPUT_VOLTAGE;
  band_center 7500;
  band_width 120;
  time_delay 30;
  raise_taps 16;
  lower_taps 16;
  regulation 0.10;
  tap_pos_A 0;
  tap_pos_B 0;
  tap_pos_C 0;
}
object overhead_line_conductor {
  name ID_624;
  rating.summer.continuous 334.0;
  geometric_mean_radius 0.00814 ft;
  resistance 0.56300;
}
object overhead_line_conductor {
  name ID_625;
  rating.summer.continuous 149.0;
  geometric_mean_radius 0.00663 ft;
  resistance 1.50000;
}
object overhead_line_conductor {
  name ID_626;
  rating.summer.continuous 120.0;
  geometric_mean_radius 0.00700 ft;
  resistance 2.40970;
}
object overhead_line_conductor {
  name ID_627;
  rating.summer.continuous 197.0;
  geometric_mean_radius 0.00883 ft;
  resistance 1.51970;
}
object overhead_line_conductor {
  name ID_628;
  rating.summer.continuous 180.0;
  geometric_mean_radius 0.00418 ft;
  resistance 1.62570;
}
object overhead_line_conductor {
  name ID_629;
  rating.summer.continuous 230.0;
  geometric_mean_radius 0.01203 ft;
  resistance 0.95300;
}
object line_spacing {
  name ID_117;
  distance_AB 0.0 in;
  distance_BC 0.0 in;
  distance_AC 0.0 in;
  distance_AN 0.0 in;
  distance_BN 0.0 in;
  distance_CN 0.0 in;
}
object line_spacing {
  name ID_118;
  distance_AB 57.6 in;
  distance_BC 57.6 in;
  distance_AC 57.6 in;
  distance_AN 84.0 in;
  distance_BN 84.0 in;
  distance_CN 84.0 in;
}
object line_spacing {
  name ID_119;
  distance_AN 84.0 in;
}
object line_spacing {
  name ID_120;
  distance_AN 0.0 in;
}
object line_spacing {
  name ID_121;
  distance_CN 84.0 in;
}
object line_spacing {
  name ID_122;
  distance_BN 84.0 in;
}
object line_spacing {
  name ID_123;
  distance_BC 57.6 in;
  distance_BN 84.0 in;
  distance_CN 84.0 in;
}
object line_spacing {
  name ID_124;
  distance_BN 0.0 in;
}
object line_spacing {
  name ID_125;
  distance_CN 0.0 in;
}
object line_spacing {
  name ID_126;
  distance_AB 57.6 in;
  distance_AN 84.0 in;
  distance_BN 84.0 in;
}
object line_spacing {
  name ID_127;
  distance_BC 0.0 in;
  distance_BN 0.0 in;
  distance_CN 0.0 in;
}
object line_configuration {
  name ID_88;
  conductor_A ID_2080;
  conductor_B ID_2080;
  conductor_C ID_2080;
  conductor_N ID_2080;
  spacing ID_117;
}
object line_configuration {
  name ID_89;
  conductor_A ID_624;
  conductor_B ID_624;
  conductor_C ID_624;
  conductor_N ID_624;
  spacing ID_118;
}
object line_configuration {
  name ID_90;
  conductor_A ID_625;
  conductor_B ID_625;
  conductor_C ID_625;
  conductor_N ID_625;
  spacing ID_118;
}
object line_configuration {
  name ID_91;
  conductor_A ID_2081;
  conductor_B ID_2081;
  conductor_C ID_2081;
  conductor_N ID_2081;
  spacing ID_117;
}
object line_configuration {
  name ID_92;
  conductor_A ID_625;
  conductor_N ID_625;
  spacing ID_119;
}
object line_configuration {
  name ID_93;
  conductor_A ID_2081;
  conductor_N ID_2081;
  spacing ID_120;
}
object line_configuration {
  name ID_94;
  conductor_A ID_624;
  conductor_B ID_624;
  conductor_C ID_624;
  conductor_N ID_624;
  spacing ID_118;
}
object line_configuration {
  name ID_95;
  conductor_C ID_625;
  conductor_N ID_625;
  spacing ID_121;
}
object line_configuration {
  name ID_96;
  conductor_C ID_626;
  conductor_N ID_626;
  spacing ID_121;
}
object line_configuration {
  name ID_97;
  conductor_B ID_626;
  conductor_N ID_626;
  spacing ID_122;
}
object line_configuration {
  name ID_98;
  conductor_B ID_625;
  conductor_N ID_625;
  spacing ID_122;
}
object line_configuration {
  name ID_99;
  conductor_A ID_627;
  conductor_N ID_627;
  spacing ID_119;
}
object line_configuration {
  name ID_100;
  conductor_B ID_626;
  conductor_C ID_626;
  conductor_N ID_626;
  spacing ID_123;
}
object line_configuration {
  name ID_101;
  conductor_C ID_625;
  conductor_N ID_625;
  spacing ID_121;
}
object line_configuration {
  name ID_102;
  conductor_B ID_625;
  conductor_C ID_625;
  conductor_N ID_625;
  spacing ID_123;
}
object line_configuration {
  name ID_103;
  conductor_B ID_2081;
  conductor_N ID_2081;
  spacing ID_124;
}
object line_configuration {
  name ID_104;
  conductor_C ID_2081;
  conductor_N ID_2081;
  spacing ID_125;
}
object line_configuration {
  name ID_105;
  conductor_C ID_628;
  conductor_N ID_628;
  spacing ID_121;
}
object line_configuration {
  name ID_106;
  conductor_A ID_624;
  conductor_B ID_624;
  conductor_C ID_624;
  conductor_N ID_624;
  spacing ID_118;
}
object line_configuration {
  name ID_107;
  conductor_A ID_629;
  conductor_B ID_629;
  conductor_C ID_629;
  conductor_N ID_629;
  spacing ID_118;
}
object line_configuration {
  name ID_108;
  conductor_B ID_628;
  conductor_N ID_628;
  spacing ID_122;
}
object line_configuration {
  name ID_109;
  conductor_B ID_2081;
  conductor_N ID_2081;
  spacing ID_122;
}
object line_configuration {
  name ID_110;
  conductor_A ID_629;
  conductor_B ID_629;
  conductor_C ID_629;
  conductor_N ID_629;
  spacing ID_118;
}
object line_configuration {
  name ID_111;
  conductor_A ID_626;
  conductor_N ID_626;
  spacing ID_119;
}
object line_configuration {
  name ID_112;
  conductor_A ID_626;
  conductor_B ID_626;
  conductor_N ID_626;
  spacing ID_126;
}
object line_configuration {
  name ID_113;
  conductor_A ID_627;
  conductor_B ID_627;
  conductor_N ID_627;
  spacing ID_126;
}
object line_configuration {
  name ID_114;
  conductor_A ID_626;
  conductor_B ID_626;
  conductor_N ID_626;
  spacing ID_126;
}
object line_configuration {
  name ID_115;
  conductor_B ID_2081;
  conductor_C ID_2081;
  conductor_N ID_2081;
  spacing ID_127;
}
object line_configuration {
  name ID_116;
  conductor_A ID_2081;
  conductor_N ID_2081;
  spacing ID_119;
}
object triplex_line_conductor {
  name triplex_4/0 AA;
  resistance 0.48;
  geometric_mean_radius 0.0158;
  rating.summer.continuous 1000.0;
  rating.summer.emergency 1000.0;
  rating.winter.continuous 1000.0;
  rating.winter.emergency 1000.0;
}
object triplex_line_configuration {
  name ID_958;
  conductor_1 triplex_4/0 AA;
  conductor_2 triplex_4/0 AA;
  conductor_N triplex_4/0 AA;
  insulation_thickness 0.08;
  diameter 0.522;
}
object underground_line_conductor {
  name ID_2080;
  rating.summer.continuous 488.0;
  outer_diameter 2.15;
  conductor_gmr 0.0371 ft;
  conductor_diameter 1.152;
  conductor_resistance 0.091872;
  neutral_gmr 0.00330 ft;
  neutral_resistance 5.9026;
  neutral_diameter 0.1019;
  neutral_strands 20.0;
  insulation_relative_permitivitty 2.3;
}
object underground_line_conductor {
  name ID_2081;
  rating.summer.continuous 142.0;
  outer_diameter 1.27;
  conductor_gmr 0.01142 ft;
  conductor_diameter 0.362;
  conductor_resistance 0.88704;
  neutral_gmr 0.00208 ft;
  neutral_resistance 14.87;
  neutral_diameter 0.0641;
  neutral_strands 16.0;
  insulation_relative_permitivitty 2.3;
}
object fuse {
  name R1_12_47_2_fuse_1;
// downstream 493.36 kva on ABCS
  phases ABCN;
  from R1_12_47_2_node_4;
  to R1_12_47_2_node_5;
  current_limit 65;
  status CLOSED;
  mean_replacement_time 3600;
}
object fuse {
  name R1_12_47_2_fuse_2;
// downstream 247.00 kva on ABC
  phases ABCN;
  from R1_12_47_2_node_5;
  to R1_12_47_2_node_6;
  current_limit 40;
  status CLOSED;
  mean_replacement_time 3600;
}
object fuse {
  name R1_12_47_2_fuse_3;
// downstream 186.79 kva on AS
  phases AN;
  from R1_12_47_2_node_7;
  to R1_12_47_2_node_8;
  current_limit 65;
  status CLOSED;
  mean_replacement_time 3600;
}
object fuse {
  name R1_12_47_2_fuse_4;
// downstream 15.57 kva on AS
  phases AN;
  from R1_12_47_2_node_10;
  to R1_12_47_2_node_11;
  current_limit 40;
  status CLOSED;
  mean_replacement_time 3600;
}
object fuse {
  name R1_12_47_2_fuse_5;
// downstream 46.70 kva on AS
  phases AN;
  from R1_12_47_2_node_12;
  to R1_12_47_2_node_13;
  current_limit 40;
  status CLOSED;
  mean_replacement_time 3600;
}
object fuse {
  name R1_12_47_2_fuse_6;
// downstream 12.64 kva on CS
  phases CN;
  from R1_12_47_2_node_18;
  to R1_12_47_2_node_19;
  current_limit 40;
  status CLOSED;
  mean_replacement_time 3600;
}
object fuse {
  name R1_12_47_2_fuse_7;
// downstream 14.46 kva on B
  phases BN;
  from R1_12_47_2_node_21;
  to R1_12_47_2_node_22;
  current_limit 40;
  status CLOSED;
  mean_replacement_time 3600;
}
object fuse {
  name R1_12_47_2_fuse_8;
// downstream 28.02 kva on A
  phases AN;
  from R1_12_47_2_node_24;
  to R1_12_47_2_node_25;
  current_limit 40;
  status CLOSED;
  mean_replacement_time 3600;
}
object fuse {
  name R1_12_47_2_fuse_9;
// downstream 255.97 kva on BCS
  phases BCN;
  from R1_12_47_2_node_28;
  to R1_12_47_2_node_29;
  current_limit 65;
  status CLOSED;
  mean_replacement_time 3600;
}
object fuse {
  name R1_12_47_2_fuse_10;
// downstream 5.56 kva on BS
  phases BN;
  from R1_12_47_2_node_33;
  to R1_12_47_2_node_34;
  current_limit 40;
  status CLOSED;
  mean_replacement_time 3600;
}
object fuse {
  name R1_12_47_2_fuse_11;
// downstream 12.64 kva on CS
  phases CN;
  from R1_12_47_2_node_33;
  to R1_12_47_2_node_35;
  current_limit 40;
  status CLOSED;
  mean_replacement_time 3600;
}
object fuse {
  name R1_12_47_2_fuse_12;
// downstream 7.59 kva on CS
  phases CN;
  from R1_12_47_2_node_36;
  to R1_12_47_2_node_37;
  current_limit 40;
  status CLOSED;
  mean_replacement_time 3600;
}
object fuse {
  name R1_12_47_2_fuse_13;
// downstream 12.64 kva on CS
  phases CN;
  from R1_12_47_2_node_39;
  to R1_12_47_2_node_40;
  current_limit 40;
  status CLOSED;
  mean_replacement_time 3600;
}
object fuse {
  name R1_12_47_2_fuse_14;
// downstream 18.97 kva on CS
  phases CN;
  from R1_12_47_2_node_41;
  to R1_12_47_2_node_43;
  current_limit 40;
  status CLOSED;
  mean_replacement_time 3600;
}
object fuse {
  name R1_12_47_2_fuse_15;
// downstream 12.64 kva on CS
  phases CN;
  from R1_12_47_2_node_42;
  to R1_12_47_2_node_44;
  current_limit 40;
  status CLOSED;
  mean_replacement_time 3600;
}
object fuse {
  name R1_12_47_2_fuse_16;
// downstream 12.64 kva on CS
  phases CN;
  from R1_12_47_2_node_45;
  to R1_12_47_2_node_46;
  current_limit 40;
  status CLOSED;
  mean_replacement_time 3600;
}
object fuse {
  name R1_12_47_2_fuse_17;
// downstream 12.64 kva on CS
  phases CN;
  from R1_12_47_2_node_49;
  to R1_12_47_2_node_50;
  current_limit 40;
  status CLOSED;
  mean_replacement_time 3600;
}
object fuse {
  name R1_12_47_2_fuse_18;
// downstream 12.64 kva on CS
  phases CN;
  from R1_12_47_2_node_51;
  to R1_12_47_2_node_52;
  current_limit 40;
  status CLOSED;
  mean_replacement_time 3600;
}
object fuse {
  name R1_12_47_2_fuse_19;
// downstream 12.64 kva on CS
  phases CN;
  from R1_12_47_2_node_51;
  to R1_12_47_2_node_53;
  current_limit 40;
  status CLOSED;
  mean_replacement_time 3600;
}
object fuse {
  name R1_12_47_2_fuse_20;
// downstream 285.87 kva on BS
  phases BN;
  from R1_12_47_2_node_57;
  to R1_12_47_2_node_58;
  current_limit 100;
  status CLOSED;
  mean_replacement_time 3600;
}
object fuse {
  name R1_12_47_2_fuse_21;
// downstream 27.81 kva on BS
  phases BN;
  from R1_12_47_2_node_61;
  to R1_12_47_2_node_62;
  current_limit 40;
  status CLOSED;
  mean_replacement_time 3600;
}
object fuse {
  name R1_12_47_2_fuse_22;
// downstream 5.56 kva on BS
  phases BN;
  from R1_12_47_2_node_67;
  to R1_12_47_2_node_68;
  current_limit 40;
  status CLOSED;
  mean_replacement_time 3600;
}
object fuse {
  name R1_12_47_2_fuse_23;
// downstream 5.56 kva on BS
  phases BN;
  from R1_12_47_2_node_73;
  to R1_12_47_2_node_74;
  current_limit 40;
  status CLOSED;
  mean_replacement_time 3600;
}
object fuse {
  name R1_12_47_2_fuse_24;
// downstream 5.56 kva on BS
  phases BN;
  from R1_12_47_2_node_75;
  to R1_12_47_2_node_76;
  current_limit 40;
  status CLOSED;
  mean_replacement_time 3600;
}
object fuse {
  name R1_12_47_2_fuse_25;
// downstream 11.12 kva on BS
  phases BN;
  from R1_12_47_2_node_78;
  to R1_12_47_2_node_79;
  current_limit 40;
  status CLOSED;
  mean_replacement_time 3600;
}
object fuse {
  name R1_12_47_2_fuse_26;
// downstream 5.56 kva on BS
  phases BN;
  from R1_12_47_2_node_81;
  to R1_12_47_2_node_82;
  current_limit 40;
  status CLOSED;
  mean_replacement_time 3600;
}
object fuse {
  name R1_12_47_2_fuse_27;
// downstream 5.56 kva on BS
  phases BN;
  from R1_12_47_2_node_81;
  to R1_12_47_2_node_83;
  current_limit 40;
  status CLOSED;
  mean_replacement_time 3600;
}
object fuse {
  name R1_12_47_2_fuse_28;
// downstream 119.02 kva on BS
  phases BN;
  from R1_12_47_2_node_84;
  to R1_12_47_2_node_85;
  current_limit 65;
  status CLOSED;
  mean_replacement_time 3600;
}
object fuse {
  name R1_12_47_2_fuse_29;
// downstream 70.08 kva on BS
  phases BN;
  from R1_12_47_2_node_85;
  to R1_12_47_2_node_86;
  current_limit 40;
  status CLOSED;
  mean_replacement_time 3600;
}
object fuse {
  name R1_12_47_2_fuse_30;
// downstream 30.59 kva on BS
  phases BN;
  from R1_12_47_2_node_89;
  to R1_12_47_2_node_90;
  current_limit 40;
  status CLOSED;
  mean_replacement_time 3600;
}
object fuse {
  name R1_12_47_2_fuse_31;
// downstream 11.12 kva on BS
  phases BN;
  from R1_12_47_2_node_93;
  to R1_12_47_2_node_95;
  current_limit 40;
  status CLOSED;
  mean_replacement_time 3600;
}
object fuse {
  name R1_12_47_2_fuse_32;
// downstream 5.56 kva on BS
  phases BN;
  from R1_12_47_2_node_85;
  to R1_12_47_2_node_96;
  current_limit 40;
  status CLOSED;
  mean_replacement_time 3600;
}
object fuse {
  name R1_12_47_2_fuse_33;
// downstream 34.48 kva on BS
  phases BN;
  from R1_12_47_2_node_97;
  to R1_12_47_2_node_336;
  current_limit 40;
  status CLOSED;
  mean_replacement_time 3600;
}
object fuse {
  name R1_12_47_2_fuse_34;
// downstream 11.12 kva on BS
  phases BN;
  from R1_12_47_2_node_100;
  to R1_12_47_2_node_102;
  current_limit 40;
  status CLOSED;
  mean_replacement_time 3600;
}
object fuse {
  name R1_12_47_2_fuse_35;
// downstream 5.56 kva on BS
  phases BN;
  from R1_12_47_2_node_101;
  to R1_12_47_2_node_103;
  current_limit 40;
  status CLOSED;
  mean_replacement_time 3600;
}
object fuse {
  name R1_12_47_2_fuse_36;
// downstream 5.56 kva on BS
  phases BN;
  from R1_12_47_2_node_99;
  to R1_12_47_2_node_105;
  current_limit 40;
  status CLOSED;
  mean_replacement_time 3600;
}
object fuse {
  name R1_12_47_2_fuse_37;
// downstream 5.56 kva on BS
  phases BN;
  from R1_12_47_2_node_336;
  to R1_12_47_2_node_337;
  current_limit 40;
  status CLOSED;
  mean_replacement_time 3600;
}
object fuse {
  name R1_12_47_2_fuse_38;
// downstream 5.56 kva on BS
  phases BN;
  from R1_12_47_2_node_107;
  to R1_12_47_2_node_108;
  current_limit 40;
  status CLOSED;
  mean_replacement_time 3600;
}
object fuse {
  name R1_12_47_2_fuse_39;
// downstream 5.56 kva on BS
  phases BN;
  from R1_12_47_2_node_109;
  to R1_12_47_2_node_110;
  current_limit 40;
  status CLOSED;
  mean_replacement_time 3600;
}
object fuse {
  name R1_12_47_2_fuse_40;
// downstream 1671.54 kva on ABCS
  phases ABCN;
  from R1_12_47_2_node_57;
  to R1_12_47_2_node_111;
  current_limit 200;
  status CLOSED;
  mean_replacement_time 3600;
}
object fuse {
  name R1_12_47_2_fuse_41;
// downstream 7.78 kva on AS
  phases AN;
  from R1_12_47_2_node_112;
  to R1_12_47_2_node_113;
  current_limit 40;
  status CLOSED;
  mean_replacement_time 3600;
}
object fuse {
  name R1_12_47_2_fuse_42;
// downstream 15.57 kva on AS
  phases AN;
  from R1_12_47_2_node_114;
  to R1_12_47_2_node_115;
  current_limit 40;
  status CLOSED;
  mean_replacement_time 3600;
}
object fuse {
  name R1_12_47_2_fuse_43;
// downstream 27.92 kva on BS
  phases BN;
  from R1_12_47_2_node_116;
  to R1_12_47_2_node_323;
  current_limit 40;
  status CLOSED;
  mean_replacement_time 3600;
}
object fuse {
  name R1_12_47_2_fuse_44;
// downstream 527.49 kva on ABS
  phases ABN;
  from R1_12_47_2_node_118;
  to R1_12_47_2_node_119;
  current_limit 100;
  status CLOSED;
  mean_replacement_time 3600;
}
object fuse {
  name R1_12_47_2_fuse_45;
  phases BN;
  from R1_12_47_2_node_122;
  to R1_12_47_2_node_123;
  current_limit 50000;
  status CLOSED;
  mean_replacement_time 3600;
}
object fuse {
  name R1_12_47_2_fuse_46;
// downstream 58.37 kva on AS
  phases AN;
  from R1_12_47_2_node_129;
  to R1_12_47_2_node_128;
  current_limit 40;
  status CLOSED;
  mean_replacement_time 3600;
}
object fuse {
  name R1_12_47_2_fuse_47;
// downstream 23.35 kva on AS
  phases AN;
  from R1_12_47_2_node_133;
  to R1_12_47_2_node_135;
  current_limit 40;
  status CLOSED;
  mean_replacement_time 3600;
}
object fuse {
  name R1_12_47_2_fuse_48;
// downstream 7.78 kva on AS
  phases AN;
  from R1_12_47_2_node_139;
  to R1_12_47_2_node_140;
  current_limit 40;
  status CLOSED;
  mean_replacement_time 3600;
}
object fuse {
  name R1_12_47_2_fuse_49;
// downstream 257.12 kva on AS
  phases AN;
  from R1_12_47_2_node_126;
  to R1_12_47_2_node_141;
  current_limit 100;
  status CLOSED;
  mean_replacement_time 3600;
}
object fuse {
  name R1_12_47_2_fuse_50;
// downstream 7.78 kva on AS
  phases AN;
  from R1_12_47_2_node_141;
  to R1_12_47_2_node_142;
  current_limit 40;
  status CLOSED;
  mean_replacement_time 3600;
}
object fuse {
  name R1_12_47_2_fuse_51;
// downstream 7.78 kva on AS
  phases AN;
  from R1_12_47_2_node_144;
  to R1_12_47_2_node_145;
  current_limit 40;
  status CLOSED;
  mean_replacement_time 3600;
}
object fuse {
  name R1_12_47_2_fuse_52;
// downstream 42.31 kva on AS
  phases AN;
  from R1_12_47_2_node_148;
  to R1_12_47_2_node_308;
  current_limit 40;
  status CLOSED;
  mean_replacement_time 3600;
}
object fuse {
  name R1_12_47_2_fuse_53;
// downstream 155.66 kva on AS
  phases AN;
  from R1_12_47_2_node_148;
  to R1_12_47_2_node_150;
  current_limit 65;
  status CLOSED;
  mean_replacement_time 3600;
}
object fuse {
  name R1_12_47_2_fuse_54;
// downstream 199.77 kva on CS
  phases CN;
  from R1_12_47_2_node_118;
  to R1_12_47_2_node_164;
  current_limit 100;
  status CLOSED;
  mean_replacement_time 3600;
}
object fuse {
  name R1_12_47_2_fuse_55;
// downstream 25.29 kva on CS
  phases CN;
  from R1_12_47_2_node_164;
  to R1_12_47_2_node_165;
  current_limit 40;
  status CLOSED;
  mean_replacement_time 3600;
}
object fuse {
  name R1_12_47_2_fuse_56;
// downstream 126.44 kva on CS
  phases CN;
  from R1_12_47_2_node_166;
  to R1_12_47_2_node_168;
  current_limit 65;
  status CLOSED;
  mean_replacement_time 3600;
}
object fuse {
  name R1_12_47_2_fuse_57;
// downstream 5.56 kva on BS
  phases BN;
  from R1_12_47_2_node_184;
  to R1_12_47_2_node_334;
  current_limit 40;
  status CLOSED;
  mean_replacement_time 3600;
}
object fuse {
  name R1_12_47_2_fuse_58;
// downstream 12.64 kva on CS
  phases CN;
  from R1_12_47_2_node_185;
  to R1_12_47_2_node_186;
  current_limit 40;
  status CLOSED;
  mean_replacement_time 3600;
}
object fuse {
  name R1_12_47_2_fuse_59;
// downstream 12.64 kva on CS
  phases CN;
  from R1_12_47_2_node_187;
  to R1_12_47_2_node_188;
  current_limit 40;
  status CLOSED;
  mean_replacement_time 3600;
}
object fuse {
  name R1_12_47_2_fuse_60;
// downstream 194.52 kva on CS
  phases CN;
  from R1_12_47_2_node_189;
  to R1_12_47_2_node_190;
  current_limit 100;
  status CLOSED;
  mean_replacement_time 3600;
}
object fuse {
  name R1_12_47_2_fuse_61;
// downstream 5.56 kva on BS
  phases BN;
  from R1_12_47_2_node_208;
  to R1_12_47_2_node_209;
  current_limit 40;
  status CLOSED;
  mean_replacement_time 3600;
}
object fuse {
  name R1_12_47_2_fuse_62;
// downstream 50.58 kva on CS
  phases CN;
  from R1_12_47_2_node_210;
  to R1_12_47_2_node_211;
  current_limit 40;
  status CLOSED;
  mean_replacement_time 3600;
}
object fuse {
  name R1_12_47_2_fuse_63;
// downstream 8.16 kva on BCS
  phases BCN;
  from R1_12_47_2_node_215;
  to R1_12_47_2_node_216;
  current_limit 40;
  status CLOSED;
  mean_replacement_time 3600;
}
object fuse {
  name R1_12_47_2_fuse_64;
// downstream 7.59 kva on CS
  phases CN;
  from R1_12_47_2_node_217;
  to R1_12_47_2_node_335;
  current_limit 40;
  status CLOSED;
  mean_replacement_time 3600;
}
object fuse {
  name R1_12_47_2_fuse_65;
// downstream 15.37 kva on BCS
  phases BCN;
  from R1_12_47_2_node_217;
  to R1_12_47_2_node_320;
  current_limit 40;
  status CLOSED;
  mean_replacement_time 3600;
}
object fuse {
  name R1_12_47_2_fuse_66;
// downstream 50.61 kva on BS
  phases BN;
  from R1_12_47_2_node_222;
  to R1_12_47_2_node_223;
  current_limit 40;
  status CLOSED;
  mean_replacement_time 3600;
}
object fuse {
  name R1_12_47_2_fuse_67;
// downstream 5.56 kva on BS
  phases BN;
  from R1_12_47_2_node_232;
  to R1_12_47_2_node_233;
  current_limit 40;
  status CLOSED;
  mean_replacement_time 3600;
}
object fuse {
  name R1_12_47_2_fuse_68;
// downstream 5.56 kva on BS
  phases BN;
  from R1_12_47_2_node_235;
  to R1_12_47_2_node_236;
  current_limit 40;
  status CLOSED;
  mean_replacement_time 3600;
}
object fuse {
  name R1_12_47_2_fuse_69;
// downstream 12.64 kva on CS
  phases CN;
  from R1_12_47_2_node_238;
  to R1_12_47_2_node_239;
  current_limit 40;
  status CLOSED;
  mean_replacement_time 3600;
}
object fuse {
  name R1_12_47_2_fuse_70;
// downstream 12.64 kva on CS
  phases CN;
  from R1_12_47_2_node_238;
  to R1_12_47_2_node_240;
  current_limit 40;
  status CLOSED;
  mean_replacement_time 3600;
}
object fuse {
  name R1_12_47_2_fuse_71;
// downstream 75.86 kva on CS
  phases CN;
  from R1_12_47_2_node_242;
  to R1_12_47_2_node_243;
  current_limit 40;
  status CLOSED;
  mean_replacement_time 3600;
}
object fuse {
  name R1_12_47_2_fuse_72;
// downstream 12.64 kva on CS
  phases CN;
  from R1_12_47_2_node_251;
  to R1_12_47_2_node_252;
  current_limit 40;
  status CLOSED;
  mean_replacement_time 3600;
}
object fuse {
  name R1_12_47_2_fuse_73;
// downstream 16.69 kva on BS
  phases BN;
  from R1_12_47_2_node_254;
  to R1_12_47_2_node_255;
  current_limit 40;
  status CLOSED;
  mean_replacement_time 3600;
}
object fuse {
  name R1_12_47_2_fuse_74;
// downstream 25.03 kva on BS
  phases BN;
  from R1_12_47_2_node_259;
  to R1_12_47_2_node_310;
  current_limit 40;
  status CLOSED;
  mean_replacement_time 3600;
}
object fuse {
  name R1_12_47_2_fuse_75;
  phases CN;
  from R1_12_47_2_node_265;
  to R1_12_47_2_node_266;
  current_limit 50000;
  status CLOSED;
  mean_replacement_time 3600;
}
object fuse {
  name R1_12_47_2_fuse_76;
// downstream 12.64 kva on CS
  phases CN;
  from R1_12_47_2_node_267;
  to R1_12_47_2_node_268;
  current_limit 40;
  status CLOSED;
  mean_replacement_time 3600;
}
object fuse {
  name R1_12_47_2_fuse_77;
// downstream 117.35 kva on BS
  phases BN;
  from R1_12_47_2_node_272;
  to R1_12_47_2_node_273;
  current_limit 65;
  status CLOSED;
  mean_replacement_time 3600;
}
object fuse {
  name R1_12_47_2_fuse_78;
// downstream 66.18 kva on BS
  phases BN;
  from R1_12_47_2_node_273;
  to R1_12_47_2_node_275;
  current_limit 40;
  status CLOSED;
  mean_replacement_time 3600;
}
object fuse {
  name R1_12_47_2_fuse_79;
// downstream 58.40 kva on BS
  phases BN;
  from R1_12_47_2_node_275;
  to R1_12_47_2_node_276;
  current_limit 40;
  status CLOSED;
  mean_replacement_time 3600;
}
object fuse {
  name R1_12_47_2_fuse_80;
// downstream 5.56 kva on BS
  phases BN;
  from R1_12_47_2_node_117;
  to R1_12_47_2_node_307;
  current_limit 40;
  status CLOSED;
  mean_replacement_time 3600;
}
object fuse {
  name R1_12_47_2_fuse_81;
// downstream 5.56 kva on BS
  phases BN;
  from R1_12_47_2_node_315;
  to R1_12_47_2_node_316;
  current_limit 40;
  status CLOSED;
  mean_replacement_time 3600;
}
object fuse {
  name R1_12_47_2_fuse_82;
// downstream 11.12 kva on BS
  phases BN;
  from R1_12_47_2_node_106;
  to R1_12_47_2_node_318;
  current_limit 40;
  status CLOSED;
  mean_replacement_time 3600;
}
object fuse {
  name R1_12_47_2_fuse_83;
// downstream 5.56 kva on BS
  phases BN;
  from R1_12_47_2_node_320;
  to R1_12_47_2_node_321;
  current_limit 40;
  status CLOSED;
  mean_replacement_time 3600;
}
object fuse {
  name R1_12_47_2_fuse_84;
// downstream 11.18 kva on AS
  phases AN;
  from R1_12_47_2_node_329;
  to R1_12_47_2_node_331;
  current_limit 40;
  status CLOSED;
  mean_replacement_time 3600;
}
object switch {
  name R1_12_47_2_switch_1;
// downstream 2834.58 kva on ABCS
  phases ABCN;
  from R1_12_47_2_node_294;
  to R1_12_47_2_node_1;
  status CLOSED;
}
object switch {
  name R1_12_47_2_switch_2;
// downstream 1957.41 kva on ABCS
  phases ABCN;
  from R1_12_47_2_node_54;
  to R1_12_47_2_node_55;
  status CLOSED;
}
object switch {
  name R1_12_47_2_switch_3;
  phases ABCN;
  from R1_12_47_2_node_56;
  to R1_12_47_2_node_293;
  status CLOSED;
}
object switch {
  name R1_12_47_2_switch_4;
  phases ABCN;
  from R1_12_47_2_node_1;
  to R1_12_47_2_node_333;
  status CLOSED;
}
object overhead_line {
  name R1_12_47_2_ol_1;
// downstream 2834.58 kva on ABCS
  phases ABCN;
  from R1_12_47_2_node_2;
  to R1_12_47_2_node_3;
  length 123.455;
  configuration ID_89;
}
object overhead_line {
  name R1_12_47_2_ol_2;
// downstream 493.36 kva on ABCS
  phases ABCN;
  from R1_12_47_2_node_3;
  to R1_12_47_2_node_4;
  length 62.392;
  configuration ID_89;
}
object overhead_line {
  name R1_12_47_2_ol_3;
// downstream 238.77 kva on ABCS
  phases ABCN;
  from R1_12_47_2_node_5;
  to R1_12_47_2_node_7;
  length 89.116;
  configuration ID_90;
}
object overhead_line {
  name R1_12_47_2_ol_4;
// downstream 11.67 kva on AS
  phases AN;
  from R1_12_47_2_node_8;
  to R1_12_47_2_node_9;
  length 186.730;
  configuration ID_92;
}
object overhead_line {
  name R1_12_47_2_ol_5;
// downstream 159.55 kva on AS
  phases AN;
  from R1_12_47_2_node_8;
  to R1_12_47_2_node_10;
  length 281.290;
  configuration ID_92;
}
object overhead_line {
  name R1_12_47_2_ol_6;
// downstream 120.64 kva on AS
  phases AN;
  from R1_12_47_2_node_10;
  to R1_12_47_2_node_12;
  length 112.210;
  configuration ID_92;
}
object overhead_line {
  name R1_12_47_2_ol_7;
// downstream 66.16 kva on A
  phases AN;
  from R1_12_47_2_node_12;
  to R1_12_47_2_node_14;
  length 358.374;
  configuration ID_92;
}
object overhead_line {
  name R1_12_47_2_ol_8;
// downstream 11.67 kva on A
  phases AN;
  from R1_12_47_2_node_14;
  to R1_12_47_2_node_15;
  length 96.430;
  configuration ID_92;
}
object overhead_line {
  name R1_12_47_2_ol_9;
// downstream 15.57 kva on A
  phases AN;
  from R1_12_47_2_node_14;
  to R1_12_47_2_node_16;
  length 153.125;
  configuration ID_92;
}
object overhead_line {
  name R1_12_47_2_ol_10;
// downstream 2341.22 kva on ABCS
  phases ABCN;
  from R1_12_47_2_node_3;
  to R1_12_47_2_node_17;
  length 308.822;
  configuration ID_94;
}
object overhead_line {
  name R1_12_47_2_ol_11;
// downstream 2330.47 kva on ABCS
  phases ABCN;
  from R1_12_47_2_node_17;
  to R1_12_47_2_node_18;
  length 763.792;
  configuration ID_94;
}
object overhead_line {
  name R1_12_47_2_ol_12;
  phases CN;
  from R1_12_47_2_node_19;
  to R1_12_47_2_node_20;
  length 56.487;
  configuration ID_96;
}
object overhead_line {
  name R1_12_47_2_ol_13;
// downstream 2295.55 kva on ABCS
  phases ABCN;
  from R1_12_47_2_node_18;
  to R1_12_47_2_node_21;
  length 1076.578;
  configuration ID_89;
}
object overhead_line {
  name R1_12_47_2_ol_14;
// downstream 11.12 kva on B
  phases BN;
  from R1_12_47_2_node_22;
  to R1_12_47_2_node_23;
  length 513.463;
  configuration ID_98;
}
object overhead_line {
  name R1_12_47_2_ol_15;
// downstream 2249.41 kva on ABCS
  phases ABCN;
  from R1_12_47_2_node_21;
  to R1_12_47_2_node_24;
  length 1175.557;
  configuration ID_89;
}
object overhead_line {
  name R1_12_47_2_ol_16;
// downstream 4.67 kva on A
  phases AN;
  from R1_12_47_2_node_25;
  to R1_12_47_2_node_26;
  length 447.078;
  configuration ID_99;
}
object overhead_line {
  name R1_12_47_2_ol_17;
// downstream 7.78 kva on A
  phases AN;
  from R1_12_47_2_node_25;
  to R1_12_47_2_node_27;
  length 565.858;
  configuration ID_99;
}
object overhead_line {
  name R1_12_47_2_ol_18;
// downstream 2213.38 kva on ABCS
  phases ABCN;
  from R1_12_47_2_node_24;
  to R1_12_47_2_node_28;
  length 1301.903;
  configuration ID_89;
}
object overhead_line {
  name R1_12_47_2_ol_19;
// downstream 245.79 kva on BCS
  phases BCN;
  from R1_12_47_2_node_29;
  to R1_12_47_2_node_30;
  length 452.473;
  configuration ID_100;
}
object overhead_line {
  name R1_12_47_2_ol_20;
  phases CN;
  from R1_12_47_2_node_30;
  to R1_12_47_2_node_31;
  length 86.737;
  configuration ID_101;
}
object overhead_line {
  name R1_12_47_2_ol_21;
// downstream 245.79 kva on BCS
  phases BCN;
  from R1_12_47_2_node_30;
  to R1_12_47_2_node_32;
  length 1283.037;
  configuration ID_100;
}
object overhead_line {
  name R1_12_47_2_ol_22;
// downstream 74.59 kva on BCS
  phases BCN;
  from R1_12_47_2_node_32;
  to R1_12_47_2_node_33;
  length 979.544;
  configuration ID_102;
}
object overhead_line {
  name R1_12_47_2_ol_23;
// downstream 22.76 kva on CS
  phases CN;
  from R1_12_47_2_node_33;
  to R1_12_47_2_node_36;
  length 526.655;
  configuration ID_96;
}
object overhead_line {
  name R1_12_47_2_ol_24;
// downstream 7.59 kva on CS
  phases CN;
  from R1_12_47_2_node_36;
  to R1_12_47_2_node_38;
  length 167.728;
  configuration ID_96;
}
object overhead_line {
  name R1_12_47_2_ol_25;
// downstream 140.35 kva on CS
  phases CN;
  from R1_12_47_2_node_32;
  to R1_12_47_2_node_39;
  length 484.671;
  configuration ID_101;
}
object overhead_line {
  name R1_12_47_2_ol_26;
// downstream 110.00 kva on CS
  phases CN;
  from R1_12_47_2_node_39;
  to R1_12_47_2_node_41;
  length 199.853;
  configuration ID_101;
}
object overhead_line {
  name R1_12_47_2_ol_27;
// downstream 12.64 kva on CS
  phases CN;
  from R1_12_47_2_node_41;
  to R1_12_47_2_node_42;
  length 46.979;
  configuration ID_105;
}
object overhead_line {
  name R1_12_47_2_ol_28;
// downstream 78.39 kva on CS
  phases CN;
  from R1_12_47_2_node_41;
  to R1_12_47_2_node_45;
  length 144.950;
  configuration ID_101;
}
object overhead_line {
  name R1_12_47_2_ol_29;
// downstream 58.16 kva on CS
  phases CN;
  from R1_12_47_2_node_45;
  to R1_12_47_2_node_47;
  length 135.556;
  configuration ID_101;
}
object overhead_line {
  name R1_12_47_2_ol_30;
// downstream 7.59 kva on CS
  phases CN;
  from R1_12_47_2_node_47;
  to R1_12_47_2_node_48;
  length 242.514;
  configuration ID_101;
}
object overhead_line {
  name R1_12_47_2_ol_31;
// downstream 37.93 kva on CS
  phases CN;
  from R1_12_47_2_node_47;
  to R1_12_47_2_node_49;
  length 42.841;
  configuration ID_101;
}
object overhead_line {
  name R1_12_47_2_ol_32;
// downstream 25.29 kva on CS
  phases CN;
  from R1_12_47_2_node_49;
  to R1_12_47_2_node_51;
  length 429.720;
  configuration ID_101;
}
object overhead_line {
  name R1_12_47_2_ol_33;
// downstream 1957.41 kva on ABCS
  phases ABCN;
  from R1_12_47_2_node_28;
  to R1_12_47_2_node_54;
  length 192.048;
  configuration ID_106;
}
object overhead_line {
  name R1_12_47_2_ol_34;
// downstream 1957.41 kva on ABCS
  phases ABCN;
  from R1_12_47_2_node_55;
  to R1_12_47_2_node_56;
  length 317.745;
  configuration ID_106;
}
object overhead_line {
  name R1_12_47_2_ol_35;
// downstream 1957.41 kva on ABCS
  phases ABCN;
  from R1_12_47_2_node_56;
  to R1_12_47_2_node_57;
  length 1182.045;
  configuration ID_107;
}
object overhead_line {
  name R1_12_47_2_ol_36;
// downstream 285.87 kva on BS
  phases BN;
  from R1_12_47_2_node_58;
  to R1_12_47_2_node_59;
  length 7970.953;
  configuration ID_97;
}
object overhead_line {
  name R1_12_47_2_ol_37;
// downstream 3.34 kva on BS
  phases BN;
  from R1_12_47_2_node_59;
  to R1_12_47_2_node_60;
  length 80.000;
  configuration ID_98;
}
object overhead_line {
  name R1_12_47_2_ol_38;
// downstream 282.53 kva on BS
  phases BN;
  from R1_12_47_2_node_59;
  to R1_12_47_2_node_61;
  length 60;
  configuration ID_97;
}
object overhead_line {
  name R1_12_47_2_ol_39;
// downstream 254.73 kva on BS
  phases BN;
  from R1_12_47_2_node_61;
  to R1_12_47_2_node_67;
  length 735.313;
  configuration ID_97;
}
object overhead_line {
  name R1_12_47_2_ol_40;
// downstream 246.94 kva on BS
  phases BN;
  from R1_12_47_2_node_67;
  to R1_12_47_2_node_69;
  length 355.899;
  configuration ID_97;
}
object overhead_line {
  name R1_12_47_2_ol_41;
// downstream 6.67 kva on BS
  phases BN;
  from R1_12_47_2_node_69;
  to R1_12_47_2_node_70;
  length 387.000;
  configuration ID_97;
}
object overhead_line {
  name R1_12_47_2_ol_42;
// downstream 3.34 kva on BS
  phases BN;
  from R1_12_47_2_node_69;
  to R1_12_47_2_node_71;
  length 89.300;
  configuration ID_97;
}
object overhead_line {
  name R1_12_47_2_ol_43;
// downstream 236.93 kva on BS
  phases BN;
  from R1_12_47_2_node_69;
  to R1_12_47_2_node_72;
  length 507.548;
  configuration ID_98;
}
object overhead_line {
  name R1_12_47_2_ol_44;
// downstream 11.12 kva on BS
  phases BN;
  from R1_12_47_2_node_72;
  to R1_12_47_2_node_73;
  length 417.000;
  configuration ID_98;
}
object overhead_line {
  name R1_12_47_2_ol_45;
// downstream 225.81 kva on BS
  phases BN;
  from R1_12_47_2_node_72;
  to R1_12_47_2_node_75;
  length 926.229;
  configuration ID_98;
}
object overhead_line {
  name R1_12_47_2_ol_46;
// downstream 216.91 kva on BS
  phases BN;
  from R1_12_47_2_node_75;
  to R1_12_47_2_node_77;
  length 146.200;
  configuration ID_98;
}
object overhead_line {
  name R1_12_47_2_ol_47;
// downstream 11.12 kva on BS
  phases BN;
  from R1_12_47_2_node_77;
  to R1_12_47_2_node_78;
  length 51.415;
  configuration ID_108;
}
object overhead_line {
  name R1_12_47_2_ol_48;
// downstream 202.45 kva on BS
  phases BN;
  from R1_12_47_2_node_77;
  to R1_12_47_2_node_80;
  length 263.307;
  configuration ID_98;
}
object overhead_line {
  name R1_12_47_2_ol_49;
// downstream 11.12 kva on BS
  phases BN;
  from R1_12_47_2_node_80;
  to R1_12_47_2_node_81;
  length 52.917;
  configuration ID_97;
}
object overhead_line {
  name R1_12_47_2_ol_50;
// downstream 191.32 kva on BS
  phases BN;
  from R1_12_47_2_node_80;
  to R1_12_47_2_node_84;
  length 294.006;
  configuration ID_98;
}
object overhead_line {
  name R1_12_47_2_ol_51;
// downstream 50.61 kva on BS
  phases BN;
  from R1_12_47_2_node_88;
  to R1_12_47_2_node_89;
  length 428.379;
  configuration ID_108;
}
object overhead_line {
  name R1_12_47_2_ol_52;
// downstream 20.02 kva on BS
  phases BN;
  from R1_12_47_2_node_89;
  to R1_12_47_2_node_93;
  length 720.157;
  configuration ID_108;
}
object overhead_line {
  name R1_12_47_2_ol_53;
// downstream 5.56 kva on BS
  phases BN;
  from R1_12_47_2_node_93;
  to R1_12_47_2_node_94;
  length 104.500;
  configuration ID_108;
}
object overhead_line {
  name R1_12_47_2_ol_54;
// downstream 43.38 kva on BS
  phases BN;
  from R1_12_47_2_node_85;
  to R1_12_47_2_node_97;
  length 394.359;
  configuration ID_98;
}
object overhead_line {
  name R1_12_47_2_ol_55;
// downstream 5.56 kva on BS
  phases BN;
  from R1_12_47_2_node_97;
  to R1_12_47_2_node_98;
  length 299.500;
  configuration ID_98;
}
object overhead_line {
  name R1_12_47_2_ol_56;
// downstream 66.74 kva on BS
  phases BN;
  from R1_12_47_2_node_101;
  to R1_12_47_2_node_99;
  length 323.000;
  configuration ID_98;
}
object overhead_line {
  name R1_12_47_2_ol_57;
// downstream 72.30 kva on BS
  phases BN;
  from R1_12_47_2_node_84;
  to R1_12_47_2_node_101;
  length 173.643;
  configuration ID_98;
}
object overhead_line {
  name R1_12_47_2_ol_58;
// downstream 55.62 kva on BS
  phases BN;
  from R1_12_47_2_node_99;
  to R1_12_47_2_node_104;
  length 1394.500;
  configuration ID_98;
}
object overhead_line {
  name R1_12_47_2_ol_59;
// downstream 16.69 kva on BS
  phases BN;
  from R1_12_47_2_node_104;
  to R1_12_47_2_node_106;
  length 320.700;
  configuration ID_98;
}
object overhead_line {
  name R1_12_47_2_ol_60;
// downstream 22.25 kva on BS
  phases BN;
  from R1_12_47_2_node_104;
  to R1_12_47_2_node_107;
  length 1193.700;
  configuration ID_98;
}
object overhead_line {
  name R1_12_47_2_ol_61;
// downstream 11.12 kva on BS
  phases BN;
  from R1_12_47_2_node_107;
  to R1_12_47_2_node_109;
  length 616.100;
  configuration ID_98;
}
object overhead_line {
  name R1_12_47_2_ol_62;
// downstream 7.78 kva on AS
  phases AN;
  from R1_12_47_2_node_111;
  to R1_12_47_2_node_112;
  length 58.644;
  configuration ID_111;
}
object overhead_line {
  name R1_12_47_2_ol_63;
// downstream 1648.56 kva on ABCS
  phases ABCN;
  from R1_12_47_2_node_111;
  to R1_12_47_2_node_114;
  length 1038.409;
  configuration ID_110;
}
object overhead_line {
  name R1_12_47_2_ol_64;
// downstream 1618.24 kva on ABCS
  phases ABCN;
  from R1_12_47_2_node_114;
  to R1_12_47_2_node_116;
  length 281.169;
  configuration ID_110;
}
object overhead_line {
  name R1_12_47_2_ol_65;
// downstream 1576.23 kva on ABCS
  phases ABCN;
  from R1_12_47_2_node_116;
  to R1_12_47_2_node_118;
  length 981.800;
  configuration ID_110;
}
object overhead_line {
  name R1_12_47_2_ol_66;
// downstream 31.59 kva on ABS
  phases ABN;
  from R1_12_47_2_node_119;
  to R1_12_47_2_node_120;
  length 275.039;
  configuration ID_113;
}
object overhead_line {
  name R1_12_47_2_ol_67;
// downstream 485.53 kva on ABS
  phases ABN;
  from R1_12_47_2_node_119;
  to R1_12_47_2_node_121;
  length 272.821;
  configuration ID_114;
}
object overhead_line {
  name R1_12_47_2_ol_68;
// downstream 3.34 kva on BS
  phases BN;
  from R1_12_47_2_node_121;
  to R1_12_47_2_node_122;
  length 174.255;
  configuration ID_97;
}
object overhead_line {
  name R1_12_47_2_ol_69;
// downstream 474.93 kva on ABS
  phases ABN;
  from R1_12_47_2_node_121;
  to R1_12_47_2_node_124;
  length 639.649;
  configuration ID_114;
}
object overhead_line {
  name R1_12_47_2_ol_70;
// downstream 18.01 kva on ABS
  phases ABN;
  from R1_12_47_2_node_124;
  to R1_12_47_2_node_125;
  length 435.900;
  configuration ID_114;
}
object overhead_line {
  name R1_12_47_2_ol_71;
// downstream 446.54 kva on AS
  phases AN;
  from R1_12_47_2_node_124;
  to R1_12_47_2_node_126;
  length 207.908;
  configuration ID_111;
}
object overhead_line {
  name R1_12_47_2_ol_72;
// downstream 114.41 kva on AS
  phases AN;
  from R1_12_47_2_node_126;
  to R1_12_47_2_node_127;
  length 932.900;
  configuration ID_111;
}
object overhead_line {
  name R1_12_47_2_ol_73;
// downstream 66.16 kva on AS
  phases AN;
  from R1_12_47_2_node_127;
  to R1_12_47_2_node_129;
  length 49.900;
  configuration ID_111;
}
object overhead_line {
  name R1_12_47_2_ol_74;
// downstream 12.45 kva on AS
  phases AN;
  from R1_12_47_2_node_127;
  to R1_12_47_2_node_131;
  length 1160.900;
  configuration ID_92;
}
object overhead_line {
  name R1_12_47_2_ol_75;
// downstream 67.22 kva on AS
  phases AN;
  from R1_12_47_2_node_126;
  to R1_12_47_2_node_327;
  length 190.452;
  configuration ID_111;
}
object overhead_line {
  name R1_12_47_2_ol_76;
// downstream 20.24 kva on AS
  phases AN;
  from R1_12_47_2_node_133;
  to R1_12_47_2_node_330;
  length 112.728;
  configuration ID_111;
}
object overhead_line {
  name R1_12_47_2_ol_77;
// downstream 4.67 kva on AS
  phases AN;
  from R1_12_47_2_node_137;
  to R1_12_47_2_node_138;
  length 303.200;
  configuration ID_111;
}
object overhead_line {
  name R1_12_47_2_ol_78;
// downstream 10.90 kva on AS
  phases AN;
  from R1_12_47_2_node_137;
  to R1_12_47_2_node_139;
  length 159.400;
  configuration ID_111;
}
object overhead_line {
  name R1_12_47_2_ol_79;
// downstream 240.00 kva on AS
  phases AN;
  from R1_12_47_2_node_141;
  to R1_12_47_2_node_143;
  length 471.600;
  configuration ID_111;
}
object overhead_line {
  name R1_12_47_2_ol_80;
// downstream 15.57 kva on AS
  phases AN;
  from R1_12_47_2_node_143;
  to R1_12_47_2_node_144;
  length 251.900;
  configuration ID_111;
}
object overhead_line {
  name R1_12_47_2_ol_81;
// downstream 215.10 kva on AS
  phases AN;
  from R1_12_47_2_node_143;
  to R1_12_47_2_node_146;
  length 1204.583;
  configuration ID_92;
}
object overhead_line {
  name R1_12_47_2_ol_82;
// downstream 202.64 kva on AS
  phases AN;
  from R1_12_47_2_node_146;
  to R1_12_47_2_node_148;
  length 450.200;
  configuration ID_92;
}
object overhead_line {
  name R1_12_47_2_ol_83;
// downstream 159.31 kva on CS
  phases CN;
  from R1_12_47_2_node_164;
  to R1_12_47_2_node_166;
  length 1180.194;
  configuration ID_101;
}
object overhead_line {
  name R1_12_47_2_ol_84;
// downstream 12.64 kva on CS
  phases CN;
  from R1_12_47_2_node_166;
  to R1_12_47_2_node_167;
  length 479.586;
  configuration ID_101;
}
object overhead_line {
  name R1_12_47_2_ol_85;
// downstream 822.60 kva on ABCS
  phases ABCN;
  from R1_12_47_2_node_118;
  to R1_12_47_2_node_183;
  length 226.855;
  configuration ID_110;
}
object overhead_line {
  name R1_12_47_2_ol_86;
// downstream 812.74 kva on BCS
  phases BCN;
  from R1_12_47_2_node_183;
  to R1_12_47_2_node_184;
  length 186.690;
  configuration ID_100;
}
object overhead_line {
  name R1_12_47_2_ol_87;
// downstream 807.18 kva on BCS
  phases BCN;
  from R1_12_47_2_node_184;
  to R1_12_47_2_node_185;
  length 136.044;
  configuration ID_100;
}
object overhead_line {
  name R1_12_47_2_ol_88;
// downstream 794.54 kva on BCS
  phases BCN;
  from R1_12_47_2_node_185;
  to R1_12_47_2_node_187;
  length 192.321;
  configuration ID_100;
}
object overhead_line {
  name R1_12_47_2_ol_89;
// downstream 774.24 kva on BCS
  phases BCN;
  from R1_12_47_2_node_187;
  to R1_12_47_2_node_189;
  length 813.851;
  configuration ID_100;
}
object overhead_line {
  name R1_12_47_2_ol_90;
// downstream 569.54 kva on BCS
  phases BCN;
  from R1_12_47_2_node_189;
  to R1_12_47_2_node_208;
  length 505.346;
  configuration ID_100;
}
object overhead_line {
  name R1_12_47_2_ol_91;
// downstream 50.58 kva on CS
  phases CN;
  from R1_12_47_2_node_208;
  to R1_12_47_2_node_210;
  length 126.966;
  configuration ID_96;
}
object overhead_line {
  name R1_12_47_2_ol_92;
// downstream 513.41 kva on BCS
  phases BCN;
  from R1_12_47_2_node_208;
  to R1_12_47_2_node_215;
  length 361.564;
  configuration ID_100;
}
object overhead_line {
  name R1_12_47_2_ol_93;
// downstream 505.25 kva on BCS
  phases BCN;
  from R1_12_47_2_node_215;
  to R1_12_47_2_node_217;
...